2015Citenel/2014MasterDissertation/redesCemigDissertacaoEzequielUfmg/SLAU23.m
function mpc = SLAU23

%% MATPOWER Case Format : Version 2
mpc.version = '2';

%%-----  Power Flow Data  -----%%
%% system MVA base
mpc.baseMVA = 1;

%% bus data
%	bus_i	type	Pd	Qd	Gs	Bs	area	Vm	Va	baseKV	zone	Vmax	Vmin
mpc.bus = [
	103039456	3	0	0	0	0	0	1	0	13.8	0	1.1	0.9;
	103039463	1	0	0	0	0	0	1	0	13.8	0	1.1	0.9;
	103039519	1	0	0	0	0	0	1	0	13.8	0	1.1	0.9;
	103039533	1	0	0	0	0	0	1	0	13.8	0	1.1	0.9;
	103039575	1	0	0	0	0	0	1	0	13.8	0	1.1	0.9;
	103039596	1	0	0	0	0	0	1	0	13.8	0	1.1	0.9;
	103039610	1	0	0	0	0	0	1	0	13.8	0	1.1	0.9;
	103039659	1	0	0	0	0	0	1	0	13.8	0	1.1	0.9;
	103039666	1	0	0	0	0	0	1	0	13.8	0	1.1	0.9;
	103039680	1	0	0	0	0	0	1	0	13.8	0	1.1	0.9;
	103039708	1	0	0	0	0	0	1	0	13.8	0	1.1	0.9;
	103039750	1	0	0	0	0	0	1	0	13.8	0	1.1	0.9;
	103039764	1	0	0	0	0	0	1	0	13.8	0	1.1	0.9;
	103039778	1	0	0	0	0	0	1	0	13.8	0	1.1	0.9;
	103039799	1	0	0	0	0	0	1	0	13.8	0	1.1	0.9;
	103039813	1	0	0	0	0	0	1	0	13.8	0	1.1	0.9;
	103039848	1	0	0	0	0	0	1	0	13.8	0	1.1	0.9;
	103039855	1	0.0112668213	0.00472313417	0	0	0	1	0	13.8	0	1.1	0.9;
	103039876	1	0	0	0	0	0	1	0	13.8	0	1.1	0.9;
	103039883	1	0.0685336426	0.0140462683	0	0	0	1	0	13.8	0	1.1	0.9;
	103039890	1	0	0	0	0	0	1	0	13.8	0	1.1	0.9;
	103039897	1	0.144067285	0.0287925367	0	0	0	1	0	13.8	0	1.1	0.9;
	103039918	1	0	0	0	0	0	1	0	13.8	0	1.1	0.9;
	103039925	1	0	0	0	0	0	1	0	13.8	0	1.1	0.9;
	103039932	1	0	0	0	0	0	1	0	13.8	0	1.1	0.9;
	103039939	1	0	0	0	0	0	1	0	13.8	0	1.1	0.9;
	103039946	1	0.0225336426	0.00944626834	0	0	0	1	0	13.8	0	1.1	0.9;
	103039981	1	0	0	0	0	0	1	0	13.8	0	1.1	0.9;
	103039988	1	0	0	0	0	0	1	0	13.8	0	1.1	0.9;
	103040002	1	0	0	0	0	0	1	0	13.8	0	1.1	0.9;
	103040030	1	0	0	0	0	0	1	0	13.8	0	1.1	0.9;
	103040037	1	0.0168251198	0.00705321369	0	0	0	1	0	13.8	0	1.1	0.9;
	103040044	1	0	0	0	0	0	1	0	13.8	0	1.1	0.9;
	103040051	1	0	0	0	0	0	1	0	13.8	0	1.1	0.9;
	103040058	1	0	0	0	0	0	1	0	13.8	0	1.1	0.9;
	103040065	1	0	0	0	0	0	1	0	13.8	0	1.1	0.9;
	103040072	1	0	0	0	0	0	1	0	13.8	0	1.1	0.9;
	103040079	1	0	0	0	0	0	1	0	13.8	0	1.1	0.9;
	103040086	1	0	0	0	0	0	1	0	13.8	0	1.1	0.9;
	103040128	1	0	0	0	0	0	1	0	13.8	0	1.1	0.9;
	103040135	1	0	0	0	0	0	1	0	13.8	0	1.1	0.9;
	103040149	1	0	0	0	0	0	1	0	13.8	0	1.1	0.9;
	103040163	1	0	0	0	0	0	1	0	13.8	0	1.1	0.9;
	103040170	1	0	0	0	0	0	1	0	13.8	0	1.1	0.9;
	103040177	1	0.0112668213	0.00472313417	0	0	0	1	0	13.8	0	1.1	0.9;
	103040184	1	0	0	0	0	0	1	0	13.8	0	1.1	0.9;
	103040191	1	0.221112142	0.0460875611	0	0	0	1	0	13.8	0	1.1	0.9;
	103040198	1	0	0	0	0	0	1	0	13.8	0	1.1	0.9;
	103040205	1	0.023584281	0.00944626834	0	0	0	1	0	13.8	0	1.1	0.9;
	103040212	1	0	0	0	0	0	1	0	13.8	0	1.1	0.9;
	103040219	1	0.0342780268	0.0141694025	0	0	0	1	0	13.8	0	1.1	0.9;
	103040226	1	0.0168251198	0.00705321369	0	0	0	1	0	13.8	0	1.1	0.9;
	103040247	1	0	0	0	0	0	1	0	13.8	0	1.1	0.9;
	103040254	1	0.0925336426	0.0164462683	0	0	0	1	0	13.8	0	1.1	0.9;
	103040303	1	0	0	0	0	0	1	0	13.8	0	1.1	0.9;
	103040366	1	0	0	0	0	0	1	0	13.8	0	1.1	0.9;
	103040380	1	0	0	0	0	0	1	0	13.8	0	1.1	0.9;
	103040387	1	0	0	0	0	0	1	0	13.8	0	1.1	0.9;
	103040401	1	0	0	0	0	0	1	0	13.8	0	1.1	0.9;
	103040408	1	0.0718251198	0.0125532137	0	0	0	1	0	13.8	0	1.1	0.9;
	103040429	1	0	0	0	0	0	1	0	13.8	0	1.1	0.9;
	103040436	1	0	0	0	0	0	1	0	13.8	0	1.1	0.9;
	103040443	1	0	0	0	0	0	1	0	13.8	0	1.1	0.9;
	103040450	1	0	0	0	0	0	1	0	13.8	0	1.1	0.9;
	103040457	1	0.170625584	0.0332226162	0	0	0	1	0	13.8	0	1.1	0.9;
	103040464	1	0	0	0	0	0	1	0	13.8	0	1.1	0.9;
	103040471	1	0.155556071	0.0275437806	0	0	0	1	0	13.8	0	1.1	0.9;
	103040478	1	0	0	0	0	0	1	0	13.8	0	1.1	0.9;
	103040485	1	0	0	0	0	0	1	0	13.8	0	1.1	0.9;
	103040492	1	0.0117978712	0.00472313417	0	0	0	1	0	13.8	0	1.1	0.9;
	103040499	1	0	0	0	0	0	1	0	13.8	0	1.1	0.9;
	103040506	1	0.0228793981	0.00944626834	0	0	0	1	0	13.8	0	1.1	0.9;
	103040513	1	0	0	0	0	0	1	0	13.8	0	1.1	0.9;
	103040520	1	0	0	0	0	0	1	0	13.8	0	1.1	0.9;
	103040527	1	0	0	0	0	0	1	0	13.8	0	1.1	0.9;
	103040534	1	0	0	0	0	0	1	0	13.8	0	1.1	0.9;
	103040541	1	0	0	0	0	0	1	0	13.8	0	1.1	0.9;
	103040548	1	0	0	0	0	0	1	0	13.8	0	1.1	0.9;
	103040555	1	0	0	0	0	0	1	0	13.8	0	1.1	0.9;
	103040562	1	0	0	0	0	0	1	0	13.8	0	1.1	0.9;
	103040569	1	0	0	0	0	0	1	0	13.8	0	1.1	0.9;
	103040576	1	0	0	0	0	0	1	0	13.8	0	1.1	0.9;
	103040625	1	0	0	0	0	0	1	0	13.8	0	1.1	0.9;
	103040639	1	0	0	0	0	0	1	0	13.8	0	1.1	0.9;
	103040660	1	0	0	0	0	0	1	0	13.8	0	1.1	0.9;
	103040695	1	0	0	0	0	0	1	0	13.8	0	1.1	0.9;
	103040716	1	0	0	0	0	0	1	0	13.8	0	1.1	0.9;
	103040723	1	0.150800464	0.0258694025	0	0	0	1	0	13.8	0	1.1	0.9;
	103040730	1	0	0	0	0	0	1	0	13.8	0	1.1	0.9;
	103040737	1	0.0322668213	0.00682313417	0	0	0	1	0	13.8	0	1.1	0.9;
	103040744	1	0.0130911116	0.00472313417	0	0	0	1	0	13.8	0	1.1	0.9;
	103040751	1	0.0112668213	0.00472313417	0	0	0	1	0	13.8	0	1.1	0.9;
	103040758	1	0.011650337	0.0028338805	0	0	0	1	0	13.8	0	1.1	0.9;
	103040765	1	0.00996931556	0.0028338805	0	0	0	1	0	13.8	0	1.1	0.9;
	103040772	1	0.00930072748	0.0028338805	0	0	0	1	0	13.8	0	1.1	0.9;
	103040779	1	0	0	0	0	0	1	0	13.8	0	1.1	0.9;
	103040786	1	0.012145537	0.00472313417	0	0	0	1	0	13.8	0	1.1	0.9;
	103040793	1	0.0120309219	0.00472313417	0	0	0	1	0	13.8	0	1.1	0.9;
	103040800	1	0	0	0	0	0	1	0	13.8	0	1.1	0.9;
	103040807	1	0.0174937079	0.00705321369	0	0	0	1	0	13.8	0	1.1	0.9;
	103040814	1	0	0	0	0	0	1	0	13.8	0	1.1	0.9;
	103040821	1	0	0	0	0	0	1	0	13.8	0	1.1	0.9;
	103040828	1	0.0168251198	0.00705321369	0	0	0	1	0	13.8	0	1.1	0.9;
	103040835	1	0.0178948607	0.00705321369	0	0	0	1	0	13.8	0	1.1	0.9;
	103040842	1	0	0	0	0	0	1	0	13.8	0	1.1	0.9;
	103040849	1	0.0175510154	0.00705321369	0	0	0	1	0	13.8	0	1.1	0.9;
	103040856	1	0	0	0	0	0	1	0	13.8	0	1.1	0.9;
	103040863	1	0	0	0	0	0	1	0	13.8	0	1.1	0.9;
	103040870	1	0	0	0	0	0	1	0	13.8	0	1.1	0.9;
	103040940	1	0	0	0	0	0	1	0	13.8	0	1.1	0.9;
	103040947	1	0.126533643	0.0198462683	0	0	0	1	0	13.8	0	1.1	0.9;
	103040954	1	0	0	0	0	0	1	0	13.8	0	1.1	0.9;
	103040961	1	0.0112668213	0.00472313417	0	0	0	1	0	13.8	0	1.1	0.9;
	103040968	1	0	0	0	0	0	1	0	13.8	0	1.1	0.9;
	103040975	1	0	0	0	0	0	1	0	13.8	0	1.1	0.9;
	103040982	1	0.0239663313	0.00944626834	0	0	0	1	0	13.8	0	1.1	0.9;
	103040989	1	0	0	0	0	0	1	0	13.8	0	1.1	0.9;
	103040996	1	0	0	0	0	0	1	0	13.8	0	1.1	0.9;
	103041003	1	0.172800464	0.0280694025	0	0	0	1	0	13.8	0	1.1	0.9;
	103041010	1	0	0	0	0	0	1	0	13.8	0	1.1	0.9;
	103041017	1	0.0445336426	0.0116462683	0	0	0	1	0	13.8	0	1.1	0.9;
	103041024	1	0	0	0	0	0	1	0	13.8	0	1.1	0.9;
	103041031	1	0	0	0	0	0	1	0	13.8	0	1.1	0.9;
	103041038	1	0	0	0	0	0	1	0	13.8	0	1.1	0.9;
	103041045	1	0.0112668213	0.00472313417	0	0	0	1	0	13.8	0	1.1	0.9;
	103041052	1	0	0	0	0	0	1	0	13.8	0	1.1	0.9;
	103041059	1	0.324067285	0.0467925367	0	0	0	1	0	13.8	0	1.1	0.9;
	103041066	1	0	0	0	0	0	1	0	13.8	0	1.1	0.9;
	103041073	1	0.196800464	0.0304694025	0	0	0	1	0	13.8	0	1.1	0.9;
	103041080	1	0	0	0	0	0	1	0	13.8	0	1.1	0.9;
	103041087	1	0.219800464	0.0327694025	0	0	0	1	0	13.8	0	1.1	0.9;
	103041094	1	0	0	0	0	0	1	0	13.8	0	1.1	0.9;
	103041101	1	0.0120309219	0.00472313417	0	0	0	1	0	13.8	0	1.1	0.9;
	103041108	1	0.012069127	0.00472313417	0	0	0	1	0	13.8	0	1.1	0.9;
	103856300	1	0	0	0	0	0	1	0	13.8	0	1.1	0.9;
	104390729	1	0	0	0	0	0	1	0	13.8	0	1.1	0.9;
	104390736	1	0	0	0	0	0	1	0	13.8	0	1.1	0.9;
	104390743	1	0.0226704899	0.00705321369	0	0	0	1	0	13.8	0	1.1	0.9;
	104390750	1	0	0	0	0	0	1	0	13.8	0	1.1	0.9;
	104390757	1	0.0225336426	0.00944626834	0	0	0	1	0	13.8	0	1.1	0.9;
	104390764	1	0.0289520881	0.00944626834	0	0	0	1	0	13.8	0	1.1	0.9;
	104390771	1	0.0178280019	0.00705321369	0	0	0	1	0	13.8	0	1.1	0.9;
	104390778	1	0	0	0	0	0	1	0	13.8	0	1.1	0.9;
	104390785	1	0.0194044934	0.00472313417	0	0	0	1	0	13.8	0	1.1	0.9;
	104391023	1	0	0	0	0	0	1	0	13.8	0	1.1	0.9;
	104391030	1	0	0	0	0	0	1	0	13.8	0	1.1	0.9;
	104391037	1	0	0	0	0	0	1	0	13.8	0	1.1	0.9;
	116193800	1	0	0	0	0	0	1	0	13.8	0	1.1	0.9;
	116194591	1	0.013253483	0.00472313417	0	0	0	1	0	13.8	0	1.1	0.9;
	116194598	1	0	0	0	0	0	1	0	13.8	0	1.1	0.9;
	116194605	1	0	0	0	0	0	1	0	13.8	0	1.1	0.9;
	116194612	1	0	0	0	0	0	1	0	13.8	0	1.1	0.9;
	116194619	1	0.00740957834	0.0028338805	0	0	0	1	0	13.8	0	1.1	0.9;
	116194626	1	0.0071421431	0.0028338805	0	0	0	1	0	13.8	0	1.1	0.9;
	116194633	1	0	0	0	0	0	1	0	13.8	0	1.1	0.9;
	116194640	1	0	0	0	0	0	1	0	13.8	0	1.1	0.9;
	116194647	1	0	0	0	0	0	1	0	13.8	0	1.1	0.9;
	116194654	1	0.0117252817	0.00472313417	0	0	0	1	0	13.8	0	1.1	0.9;
	116198357	1	0	0	0	0	0	1	0	13.8	0	1.1	0.9;
	116198364	1	0.0237371011	0.00944626834	0	0	0	1	0	13.8	0	1.1	0.9;
	116198371	1	0	0	0	0	0	1	0	13.8	0	1.1	0.9;
	116198385	1	0	0	0	0	0	1	0	13.8	0	1.1	0.9;
	116198392	1	0.0725336426	0.0144462683	0	0	0	1	0	13.8	0	1.1	0.9;
	129338260	1	0.0116679741	0.00472313417	0	0	0	1	0	13.8	0	1.1	0.9;
	129338267	1	0.0116679741	0.00472313417	0	0	0	1	0	13.8	0	1.1	0.9;
	129338274	1	0	0	0	0	0	1	0	13.8	0	1.1	0.9;
	129338281	1	0.0114387439	0.00472313417	0	0	0	1	0	13.8	0	1.1	0.9;
	129338288	1	0	0	0	0	0	1	0	13.8	0	1.1	0.9;
	129338295	1	0.0234696659	0.00944626834	0	0	0	1	0	13.8	0	1.1	0.9;
	129338302	1	0.0116106666	0.00472313417	0	0	0	1	0	13.8	0	1.1	0.9;
	129338309	1	0.00683650284	0.0028338805	0	0	0	1	0	13.8	0	1.1	0.9;
	129338316	1	0	0	0	0	0	1	0	13.8	0	1.1	0.9;
	148372470	1	0	0	0	0	0	1	0	13.8	0	1.1	0.9;
	148372471	1	0.0229156929	0.00944626834	0	0	0	1	0	13.8	0	1.1	0.9;
	148711612	1	0	0	0	0	0	1	0	13.8	0	1.1	0.9;
	148711613	1	0	0	0	0	0	1	0	13.8	0	1.1	0.9;
	148711614	1	0.0179139632	0.00705321369	0	0	0	1	0	13.8	0	1.1	0.9;
	148711615	1	0.0450672851	0.0188925367	0	0	0	1	0	13.8	0	1.1	0.9;
	148823813	1	0	0	0	0	0	1	0	13.8	0	1.1	0.9;
	148823814	1	0.379533643	0.0451462683	0	0	0	1	0	13.8	0	1.1	0.9;
	149273427	1	0	0	0	0	0	1	0	13.8	0	1.1	0.9;
	149273428	1	0.0239281263	0.00944626834	0	0	0	1	0	13.8	0	1.1	0.9;
	149273429	1	0	0	0	0	0	1	0	13.8	0	1.1	0.9;
	149273430	1	0.031053365	0.00944626834	0	0	0	1	0	13.8	0	1.1	0.9;
	149273431	1	0	0	0	0	0	1	0	13.8	0	1.1	0.9;
	149530697	1	0	0	0	0	0	1	0	13.8	0	1.1	0.9;
	149530698	1	0.0925336426	0.0164462683	0	0	0	1	0	13.8	0	1.1	0.9;
	149799857	1	0	0	0	0	0	1	0	13.8	0	1.1	0.9;
	149799858	1	0	0	0	0	0	1	0	13.8	0	1.1	0.9;
	149799859	1	0.0121264345	0.00472313417	0	0	0	1	0	13.8	0	1.1	0.9;
	149799860	1	0	0	0	0	0	1	0	13.8	0	1.1	0.9;
	149799861	1	0.0172071701	0.00705321369	0	0	0	1	0	13.8	0	1.1	0.9;
	149799862	1	0.0232022307	0.00944626834	0	0	0	1	0	13.8	0	1.1	0.9;
	149799863	1	0	0	0	0	0	1	0	13.8	0	1.1	0.9;
	149799864	1	0	0	0	0	0	1	0	13.8	0	1.1	0.9;
	149973387	1	0	0	0	0	0	1	0	13.8	0	1.1	0.9;
	149973388	1	0	0	0	0	0	1	0	13.8	0	1.1	0.9;
	149973389	1	0.0232022307	0.00944626834	0	0	0	1	0	13.8	0	1.1	0.9;
	149973390	1	0.0116488716	0.00472313417	0	0	0	1	0	13.8	0	1.1	0.9;
	149973391	1	0.0225336426	0.00944626834	0	0	0	1	0	13.8	0	1.1	0.9;
	149973392	1	0.0323905411	0.00944626834	0	0	0	1	0	13.8	0	1.1	0.9;
	149973393	1	0.0172071701	0.00705321369	0	0	0	1	0	13.8	0	1.1	0.9;
	149973394	1	0.00685560535	0.0028338805	0	0	0	1	0	13.8	0	1.1	0.9;
	149990051	1	0	0	0	0	0	1	0	13.8	0	1.1	0.9;
	149990052	1	0.0287037554	0.00944626834	0	0	0	1	0	13.8	0	1.1	0.9;
	149990053	1	0.0450672851	0.0188925367	0	0	0	1	0	13.8	0	1.1	0.9;
	149990054	1	0.0112668213	0.00472313417	0	0	0	1	0	13.8	0	1.1	0.9;
	150196199	1	0	0	0	0	0	1	0	13.8	0	1.1	0.9;
	150196200	1	0.0230494105	0.00944626834	0	0	0	1	0	13.8	0	1.1	0.9;
	150196201	1	0	0	0	0	0	1	0	13.8	0	1.1	0.9;
	150196202	1	0.0236797936	0.00944626834	0	0	0	1	0	13.8	0	1.1	0.9;
	150196203	1	0.0124702798	0.00472313417	0	0	0	1	0	13.8	0	1.1	0.9;
	150196204	1	0.0112668213	0.00472313417	0	0	0	1	0	13.8	0	1.1	0.9;
	150196205	1	0.0120309219	0.00472313417	0	0	0	1	0	13.8	0	1.1	0.9;
	150196206	1	0	0	0	0	0	1	0	13.8	0	1.1	0.9;
	150196207	1	0	0	0	0	0	1	0	13.8	0	1.1	0.9;
	150196208	1	0.00718034814	0.0028338805	0	0	0	1	0	13.8	0	1.1	0.9;
	150196209	1	0.0176274255	0.00705321369	0	0	0	1	0	13.8	0	1.1	0.9;
	150196210	1	0.0178757582	0.00705321369	0	0	0	1	0	13.8	0	1.1	0.9;
	150196211	1	0.0120500245	0.00472313417	0	0	0	1	0	13.8	0	1.1	0.9;
	150196212	1	0.0118781018	0.00472313417	0	0	0	1	0	13.8	0	1.1	0.9;
	150342146	1	0	0	0	0	0	1	0	13.8	0	1.1	0.9;
	150342147	1	0	0	0	0	0	1	0	13.8	0	1.1	0.9;
	150342148	1	0.150224284	0.0629751223	0	0	0	1	0	13.8	0	1.1	0.9;
	150342149	1	0	0	0	0	0	1	0	13.8	0	1.1	0.9;
	150342150	1	0.0715336426	0.0143462683	0	0	0	1	0	13.8	0	1.1	0.9;
	150360215	1	0	0	0	0	0	1	0	13.8	0	1.1	0.9;
	150360216	1	0	0	0	0	0	1	0	13.8	0	1.1	0.9;
	150360217	1	0.0231640256	0.00944626834	0	0	0	1	0	13.8	0	1.1	0.9;
	150360218	1	0.0230112055	0.00944626834	0	0	0	1	0	13.8	0	1.1	0.9;
	150360219	1	0.00704663052	0.0028338805	0	0	0	1	0	13.8	0	1.1	0.9;
	150360220	1	0	0	0	0	0	1	0	13.8	0	1.1	0.9;
	150360221	1	0	0	0	0	0	1	0	13.8	0	1.1	0.9;
	150360222	1	0	0	0	0	0	1	0	13.8	0	1.1	0.9;
	150360223	1	0.0175892205	0.00705321369	0	0	0	1	0	13.8	0	1.1	0.9;
	150393003	1	0	0	0	0	0	1	0	13.8	0	1.1	0.9;
	150393004	1	0.0232022307	0.00944626834	0	0	0	1	0	13.8	0	1.1	0.9;
	150393005	1	0	0	0	0	0	1	0	13.8	0	1.1	0.9;
	150393006	1	0.0121264345	0.00472313417	0	0	0	1	0	13.8	0	1.1	0.9;
	150393007	1	0	0	0	0	0	1	0	13.8	0	1.1	0.9;
	150393008	1	0.017016145	0.00705321369	0	0	0	1	0	13.8	0	1.1	0.9;
	150393009	1	0.0450672851	0.0188925367	0	0	0	1	0	13.8	0	1.1	0.9;
	150393010	1	0	0	0	0	0	1	0	13.8	0	1.1	0.9;
	150393011	1	0.011553359	0.00472313417	0	0	0	1	0	13.8	0	1.1	0.9;
	150393012	1	0.0240618439	0.00944626834	0	0	0	1	0	13.8	0	1.1	0.9;
	150393013	1	0.0124435363	0.00472313417	0	0	0	1	0	13.8	0	1.1	0.9;
	150393014	1	0	0	0	0	0	1	0	13.8	0	1.1	0.9;
	150393015	1	0	0	0	0	0	1	0	13.8	0	1.1	0.9;
	150393016	1	0	0	0	0	0	1	0	13.8	0	1.1	0.9;
	150393017	1	0.0344690519	0.0141694025	0	0	0	1	0	13.8	0	1.1	0.9;
	150393018	1	0.022772424	0.00944626834	0	0	0	1	0	13.8	0	1.1	0.9;
	150393019	1	0	0	0	0	0	1	0	13.8	0	1.1	0.9;
	150397169	1	0	0	0	0	0	1	0	13.8	0	1.1	0.9;
	150406171	1	0	0	0	0	0	1	0	13.8	0	1.1	0.9;
	150406172	1	0.0118055123	0.00472313417	0	0	0	1	0	13.8	0	1.1	0.9;
	2810382	1	0	0	0	0	0	1	0	13.8	0	1.1	0.9;
	2810886	1	0	0	0	0	0	1	0	13.8	0	1.1	0.9;
	2810893	1	0	0	0	0	0	1	0	13.8	0	1.1	0.9;
	2810949	1	0	0	0	0	0	1	0	13.8	0	1.1	0.9;
	2811250	1	0	0	0	0	0	1	0	13.8	0	1.1	0.9;
	3013809	1	0	0	0	0	0	1	0	13.8	0	1.1	0.9;
	3734354	1	0	0	0	0	0	1	0	13.8	0	1.1	0.9;
	3757804	1	0	0	0	0	0	1	0	13.8	0	1.1	0.9;
	3784796	1	0	0	0	0	0	1	0	13.8	0	1.1	0.9;
	3787239	1	0	0	0	0	0	1	0	13.8	0	1.1	0.9;
];

%% generator data
%	bus	Pg	Qg	Qmax	Qmin	Vg	mBase	status	Pmax	Pmin	Pc1	Pc2	Qc1min	Qc1max	Qc2min	Qc2max	ramp_agc	ramp_10	ramp_30	ramp_q	apf
mpc.gen = [
	103039456	5	0	2.5	-2.5	1	1	1	10	5	0	0	0	0	0	0	0	0	0	0	0;
];

%% branch data
%	fbus	tbus	r	x	b	rateA	rateB	rateC	ratio	angle	status	angmin	angmax
mpc.branch = [
	103039764	103039890	2.62549884e-07	2.62549884e-07	-2.62549884e-09	6	8	10	1	0	1	-360	360;
	103040030	103040037	0.000190365992	8.37272604e-05	-2.62549884e-09	0.0012282	0.0018492	0.0020562	1	0	1	-360	360;
	103040541	103040548	4.05859831e-05	4.29037732e-05	-2.62549884e-09	0.0037812	0.005658	0.0062928	1	0	1	-360	360;
	103040569	103040576	2.62549884e-07	2.62549884e-07	-2.62549884e-09	6	8	10	1	0	1	-360	360;
	103040639	103040716	2.62549884e-07	2.62549884e-07	-2.62549884e-09	6	8	10	1	0	1	-360	360;
	103040730	103040737	0.000114256325	4.70994425e-05	-2.62549884e-09	0.001863	0.0028014	0.003105	1	0	1	-360	360;
	103040821	103040835	0.000111248173	4.58594039e-05	-2.62549884e-09	0.001863	0.0028014	0.003105	1	0	1	-360	360;
	103040954	103040961	0.000144913846	6.37363804e-05	-2.62549884e-09	0.0012282	0.0018492	0.0020562	1	0	1	-360	360;
	103040842	103040954	2.62549884e-07	2.62549884e-07	-2.62549884e-09	6	8	10	1	0	1	-360	360;
	104390764	103039659	8.69531782e-05	9.19189126e-05	-2.62549884e-09	0.0037812	0.005658	0.0062928	1	0	1	-360	360;
	103039659	103039666	0.000169626458	0.00017931351	-2.62549884e-09	0.0037812	0.005658	0.0062928	1	0	1	-360	360;
	103039666	104390771	0.000106515971	0.0001125989	-2.62549884e-09	0.0037812	0.005658	0.0062928	1	0	1	-360	360;
	104390778	103039680	4.92829721e-05	5.2097431e-05	-2.62549884e-09	0.0037812	0.005658	0.0062928	1	0	1	-360	360;
	116194633	116193800	0.000115828734	4.77476306e-05	-2.62549884e-09	0.001863	0.0028014	0.003105	1	0	1	-360	360;
	129338281	129338295	0.000381985877	0.000267269804	-2.62549884e-09	0.0016008	0.0024012	0.0026772	1	0	1	-360	360;
	148711613	148711615	0.000126765168	5.22559146e-05	-2.62549884e-09	0.001863	0.0028014	0.003105	1	0	1	-360	360;
	149799858	103039708	5.06227702e-05	2.08680286e-05	-2.62549884e-09	0.001863	0.0028014	0.003105	1	0	1	-360	360;
	103039680	149799857	2.62549884e-07	2.62549884e-07	-2.62549884e-09	6	8	10	1	0	1	-360	360;
	103039764	149973388	0.000143708237	5.92402904e-05	-2.62549884e-09	0.001863	0.0028014	0.003105	1	0	1	-360	360;
	149973392	149973393	0.00010094728	4.16131065e-05	-2.62549884e-09	0.001863	0.0028014	0.003105	1	0	1	-360	360;
	149973393	149973394	0.000370499347	0.000152729512	-2.62549884e-09	0.001863	0.0028014	0.003105	1	0	1	-360	360;
	103039575	150196203	0.000314413161	0.000332368712	-2.62549884e-09	0.0037812	0.005658	0.0062928	1	0	1	-360	360;
	150196203	150196204	0.000106909774	0.000113015193	-2.62549884e-09	0.0037812	0.005658	0.0062928	1	0	1	-360	360;
	150360220	150360221	2.62549884e-07	2.62549884e-07	-2.62549884e-09	6	8	10	1	0	1	-360	360;
	150393010	150393011	4.40519177e-05	4.65676408e-05	-2.62549884e-09	0.0037812	0.005658	0.0062928	1	0	1	-360	360;
	150393012	3787239	5.74265104e-05	6.07060317e-05	-2.62549884e-09	0.0037812	0.005658	0.0062928	1	0	1	-360	360;
	103040366	150393018	5.56728514e-05	5.88522245e-05	-2.62549884e-09	0.0037812	0.005658	0.0062928	1	0	1	-360	360;
	150406171	150406172	0.000106759941	0.000112856803	-2.62549884e-09	0.0037812	0.005658	0.0062928	1	0	1	-360	360;
	103039799	103039876	2.62549884e-07	2.62549884e-07	-2.62549884e-09	6	8	10	1	0	1	-360	360;
	103039925	103039939	2.62549884e-07	2.62549884e-07	-2.62549884e-09	6	8	10	1	0	1	-360	360;
	103040002	103040044	2.62549884e-07	2.62549884e-07	-2.62549884e-09	6	8	10	1	0	1	-360	360;
	103040170	103040184	2.62549884e-07	2.62549884e-07	-2.62549884e-09	6	8	10	1	0	1	-360	360;
	103040212	103040219	0.000225502867	9.29581742e-05	-2.62549884e-09	0.001863	0.0028014	0.003105	1	0	1	-360	360;
	103040387	103040401	2.62549884e-07	2.62549884e-07	-2.62549884e-09	6	8	10	1	0	1	-360	360;
	103040513	103040534	4.68347545e-05	4.95094003e-05	-2.62549884e-09	0.0037812	0.005658	0.0062928	1	0	1	-360	360;
	103040513	103040520	5.5035182e-05	5.81781389e-05	-2.62549884e-09	0.0037812	0.005658	0.0062928	1	0	1	-360	360;
	103040520	103040527	2.62549884e-07	2.62549884e-07	-2.62549884e-09	6	8	10	1	0	1	-360	360;
	103040548	103040555	2.47690588e-05	2.61835737e-05	-2.62549884e-09	0.0037812	0.005658	0.0062928	1	0	1	-360	360;
	103040765	103040772	0.000568964468	0.000601456971	-2.62549884e-09	0.0037812	0.005658	0.0062928	1	0	1	-360	360;
	103040772	103040779	0.000271403943	0.000286903318	-2.62549884e-09	0.0037812	0.005658	0.0062928	1	0	1	-360	360;
	103040996	103041003	0.000122524155	5.38888889e-05	-2.62549884e-09	0.0012282	0.0018492	0.0020562	1	0	1	-360	360;
	103040989	103040996	2.62549884e-07	2.62549884e-07	-2.62549884e-09	6	8	10	1	0	1	-360	360;
	103039575	103041080	2.62549884e-07	2.62549884e-07	-2.62549884e-09	6	8	10	1	0	1	-360	360;
	103041101	103041108	0.00129081584	0.00144377887	-2.62549884e-09	0.0006624	0.0013662	0.0015318	1	0	1	-360	360;
	103039456	103039463	5.50716258e-05	5.8216664e-05	-2.62549884e-09	0.0037812	0.005658	0.0062928	1	0	1	-360	360;
	116194605	116194612	0.000284464156	0.000191070669	-2.62549884e-09	0.001656	0.002484	0.0027738	1	0	1	-360	360;
	116194633	116194640	0.000109295097	7.34120164e-05	-2.62549884e-09	0.001656	0.002484	0.0027738	1	0	1	-360	360;
	103039918	103039925	2.72567539e-05	2.88133365e-05	-2.62549884e-09	0.0037812	0.005658	0.0062928	1	0	1	-360	360;
	103039925	103039932	2.20400126e-05	2.32986767e-05	-2.62549884e-09	0.0037812	0.005658	0.0062928	1	0	1	-360	360;
	103040660	148711612	2.62549884e-07	2.62549884e-07	-2.62549884e-09	6	8	10	1	0	1	-360	360;
	103039988	149273428	5.2774512e-05	5.57883663e-05	-2.62549884e-09	0.0037812	0.005658	0.0062928	1	0	1	-360	360;
	149973388	103039778	0.000505144188	0.000208233633	-2.62549884e-09	0.001863	0.0028014	0.003105	1	0	1	-360	360;
	149990053	149990054	0.000549231981	0.000226407774	-2.62549884e-09	0.001863	0.0028014	0.003105	1	0	1	-360	360;
	150196199	150196200	0.000107313081	0.000113441531	-2.62549884e-09	0.0037812	0.005658	0.0062928	1	0	1	-360	360;
	103039596	150196205	4.52837988e-05	4.78698724e-05	-2.62549884e-09	0.0037812	0.005658	0.0062928	1	0	1	-360	360;
	150196209	150196210	0.000223836462	0.000236619346	-2.62549884e-09	0.0037812	0.005658	0.0062928	1	0	1	-360	360;
	103039463	150196206	2.62549884e-07	2.62549884e-07	-2.62549884e-09	6	8	10	1	0	1	-360	360;
	150360216	150360217	0.000340426842	0.000140332839	-2.62549884e-09	0.001863	0.0028014	0.003105	1	0	1	-360	360;
	150360218	103040128	0.000109403595	4.50990204e-05	-2.62549884e-09	0.001863	0.0028014	0.003105	1	0	1	-360	360;
	150360222	103040149	9.5804249e-05	3.94930147e-05	-2.62549884e-09	0.001863	0.0028014	0.003105	1	0	1	-360	360;
	150360223	2810949	3.74184184e-05	3.95553147e-05	-2.62549884e-09	0.0037812	0.005658	0.0062928	1	0	1	-360	360;
	150393003	150393004	4.46483464e-05	4.71981304e-05	-2.62549884e-09	0.0037812	0.005658	0.0062928	1	0	1	-360	360;
	150393006	150393013	0.000210510552	0.000222532418	-2.62549884e-09	0.0037812	0.005658	0.0062928	1	0	1	-360	360;
	150393015	150393016	5.18873367e-05	5.4850526e-05	-2.62549884e-09	0.0037812	0.005658	0.0062928	1	0	1	-360	360;
	150393016	103040366	3.17928478e-05	3.36084783e-05	-2.62549884e-09	0.0037812	0.005658	0.0062928	1	0	1	-360	360;
	103040380	103040387	5.85712427e-05	6.19161375e-05	-2.62549884e-09	0.0037812	0.005658	0.0062928	1	0	1	-360	360;
	103039848	103039855	6.82470205e-05	1.21217336e-05	-2.62549884e-09	0.001449	0.0021666	0.002415	1	0	1	-360	360;
	103039890	103039897	0.000120774563	5.3119379e-05	-2.62549884e-09	0.0012282	0.0018492	0.0020562	1	0	1	-360	360;
	103040163	103040170	7.15913839e-05	2.95118391e-05	-2.62549884e-09	0.001863	0.0028014	0.003105	1	0	1	-360	360;
	103040149	103040163	2.62549884e-07	2.62549884e-07	-2.62549884e-09	6	8	10	1	0	1	-360	360;
	103040478	103040485	0.000161696108	0.000180857267	-2.62549884e-09	0.0006624	0.0013662	0.0015318	1	0	1	-360	360;
	103040562	103040744	3.67155624e-05	3.88123199e-05	-2.62549884e-09	0.0037812	0.005658	0.0062928	1	0	1	-360	360;
	103040527	103040786	0.000125339144	8.76979236e-05	-2.62549884e-09	0.0016008	0.0024012	0.0026772	1	0	1	-360	360;
	103040940	103040947	4.73930396e-05	1.95366493e-05	-2.62549884e-09	0.001863	0.0028014	0.003105	1	0	1	-360	360;
	103040968	103040975	0.00017613627	7.26079727e-05	-2.62549884e-09	0.001863	0.0028014	0.003105	1	0	1	-360	360;
	103041038	103041045	8.67195602e-05	3.814122e-05	-2.62549884e-09	0.0012282	0.0018492	0.0020562	1	0	1	-360	360;
	103041052	103041059	0.000101914781	0.00011399179	-2.62549884e-09	0.0006624	0.0013662	0.0015318	1	0	1	-360	360;
	103039610	104390729	2.62549884e-07	2.62549884e-07	-2.62549884e-09	6	8	10	1	0	1	-360	360;
	104390778	104391023	2.62549884e-07	2.62549884e-07	-2.62549884e-09	6	8	10	1	0	1	-360	360;
	116194598	116194605	5.04958599e-05	5.33795846e-05	-2.62549884e-09	0.0037812	0.005658	0.0062928	1	0	1	-360	360;
	116194626	116194647	9.51541726e-05	6.39137517e-05	-2.62549884e-09	0.001656	0.002484	0.0027738	1	0	1	-360	360;
	116194647	103040660	0.000132639199	8.90919297e-05	-2.62549884e-09	0.001656	0.002484	0.0027738	1	0	1	-360	360;
	103040625	103040639	0.000170473639	0.000114504804	-2.62549884e-09	0.001656	0.002484	0.0027738	1	0	1	-360	360;
	116198371	116198385	2.62549884e-07	2.62549884e-07	-2.62549884e-09	6	8	10	1	0	1	-360	360;
	129338260	129338267	0.000110300851	0.000116599927	-2.62549884e-09	0.0037812	0.005658	0.0062928	1	0	1	-360	360;
	129338274	129338288	2.26418994e-05	2.39349362e-05	-2.62549884e-09	0.0037812	0.005658	0.0062928	1	0	1	-360	360;
	148372470	148372471	0.000101204484	0.000106984084	-2.62549884e-09	0.0037812	0.005658	0.0062928	1	0	1	-360	360;
	148711613	148711614	0.000122767456	8.24612153e-05	-2.62549884e-09	0.001656	0.002484	0.0027738	1	0	1	-360	360;
	103039750	149273427	0.000162931947	0.000172236688	-2.62549884e-09	0.0037812	0.005658	0.0062928	1	0	1	-360	360;
	149273429	149273430	0.000198314736	8.17505162e-05	-2.62549884e-09	0.001863	0.0028014	0.003105	1	0	1	-360	360;
	149273428	103040002	4.23293481e-05	4.47466985e-05	-2.62549884e-09	0.0037812	0.005658	0.0062928	1	0	1	-360	360;
	149799860	149799862	4.92829721e-05	5.2097431e-05	-2.62549884e-09	0.0037812	0.005658	0.0062928	1	0	1	-360	360;
	149990052	149990053	0.000183962596	7.58341888e-05	-2.62549884e-09	0.001863	0.0028014	0.003105	1	0	1	-360	360;
	150196201	150196202	0.000144074909	5.9391442e-05	-2.62549884e-09	0.001863	0.0028014	0.003105	1	0	1	-360	360;
	150196210	150196211	0.000181626506	0.000191998858	-2.62549884e-09	0.0037812	0.005658	0.0062928	1	0	1	-360	360;
	150393008	150393009	2.66013747e-05	2.81205298e-05	-2.62549884e-09	0.0037812	0.005658	0.0062928	1	0	1	-360	360;
	150393018	103040380	5.62435581e-05	5.94555232e-05	-2.62549884e-09	0.0037812	0.005658	0.0062928	1	0	1	-360	360;
	103040429	103040436	5.66010342e-05	5.9833414e-05	-2.62549884e-09	0.0037812	0.005658	0.0062928	1	0	1	-360	360;
	103040051	103040058	2.66959912e-05	2.82205496e-05	-2.62549884e-09	0.0037812	0.005658	0.0062928	1	0	1	-360	360;
	103040170	103040177	4.12724896e-05	1.70135986e-05	-2.62549884e-09	0.001863	0.0028014	0.003105	1	0	1	-360	360;
	103040128	103040247	2.62549884e-07	2.62549884e-07	-2.62549884e-09	6	8	10	1	0	1	-360	360;
	3784796	103040569	3.68754433e-05	3.89813313e-05	-2.62549884e-09	0.0037812	0.005658	0.0062928	1	0	1	-360	360;
	103040625	103040730	2.62549884e-07	2.62549884e-07	-2.62549884e-09	6	8	10	1	0	1	-360	360;
	103040751	103040758	6.6676963e-05	7.04847604e-05	-2.62549884e-09	0.0037812	0.005658	0.0062928	1	0	1	-360	360;
	103040807	103040814	0.000100313691	6.73793296e-05	-2.62549884e-09	0.001656	0.002484	0.0027738	1	0	1	-360	360;
	103040828	103040849	0.00010901957	7.62793623e-05	-2.62549884e-09	0.0016008	0.0024012	0.0026772	1	0	1	-360	360;
	103040856	103040863	0.000329672834	0.00023066715	-2.62549884e-09	0.0016008	0.0024012	0.0026772	1	0	1	-360	360;
	103040863	103040870	2.62549884e-07	2.62549884e-07	-2.62549884e-09	6	8	10	1	0	1	-360	360;
	103040303	103040968	2.62549884e-07	2.62549884e-07	-2.62549884e-09	6	8	10	1	0	1	-360	360;
	103039519	103041094	2.62549884e-07	2.62549884e-07	-2.62549884e-09	6	8	10	1	0	1	-360	360;
	104390736	3734354	8.23501086e-05	8.70529702e-05	-2.62549884e-09	0.0037812	0.005658	0.0062928	1	0	1	-360	360;
	116194612	103040625	0.00037218277	0.000249990058	-2.62549884e-09	0.001656	0.002484	0.0027738	1	0	1	-360	360;
	116194640	2810382	2.62549884e-07	2.62549884e-07	-2.62549884e-09	6	8	10	1	0	1	-360	360;
	129338274	129338281	4.98931045e-05	5.27424069e-05	-2.62549884e-09	0.0037812	0.005658	0.0062928	1	0	1	-360	360;
	103040695	148823813	2.62549884e-07	2.62549884e-07	-2.62549884e-09	6	8	10	1	0	1	-360	360;
	149273427	103039981	3.01551582e-05	3.18772632e-05	-2.62549884e-09	0.0037812	0.005658	0.0062928	1	0	1	-360	360;
	103039981	149273429	0.000110225189	0.000116519944	-2.62549884e-09	0.0037812	0.005658	0.0062928	1	0	1	-360	360;
	149799860	149799861	0.000295260544	0.000121714111	-2.62549884e-09	0.001863	0.0028014	0.003105	1	0	1	-360	360;
	149799864	148372470	2.62549884e-07	2.62549884e-07	-2.62549884e-09	6	8	10	1	0	1	-360	360;
	103039799	149973390	0.000587930819	0.000242360446	-2.62549884e-09	0.001863	0.0028014	0.003105	1	0	1	-360	360;
	103039708	149973387	2.62549884e-07	2.62549884e-07	-2.62549884e-09	6	8	10	1	0	1	-360	360;
	103039519	150196212	0.000153956295	0.000162748452	-2.62549884e-09	0.0037812	0.005658	0.0062928	1	0	1	-360	360;
	103039918	150342146	2.62549884e-07	2.62549884e-07	-2.62549884e-09	6	8	10	1	0	1	-360	360;
	150360216	150360219	0.000270915671	0.000111678518	-2.62549884e-09	0.001863	0.0028014	0.003105	1	0	1	-360	360;
	103040079	150360215	2.62549884e-07	2.62549884e-07	-2.62549884e-09	6	8	10	1	0	1	-360	360;
	103040135	150360222	3.89157521e-05	4.11381583e-05	-2.62549884e-09	0.0037812	0.005658	0.0062928	1	0	1	-360	360;
	150393004	150393005	0.000172329575	0.000182170997	-2.62549884e-09	0.0037812	0.005658	0.0062928	1	0	1	-360	360;
	150393005	150393008	6.76678949e-05	7.15322826e-05	-2.62549884e-09	0.0037812	0.005658	0.0062928	1	0	1	-360	360;
	150393013	150393014	2.60909928e-05	2.75810009e-05	-2.62549884e-09	0.0037812	0.005658	0.0062928	1	0	1	-360	360;
	150406172	103040429	0.00010489345	0.00011088372	-2.62549884e-09	0.0037812	0.005658	0.0062928	1	0	1	-360	360;
	103040443	150397169	3.73284822e-05	3.94602424e-05	-2.62549884e-09	0.0037812	0.005658	0.0062928	1	0	1	-360	360;
	103039981	103040030	2.62549884e-07	2.62549884e-07	-2.62549884e-09	6	8	10	1	0	1	-360	360;
	103040044	103040051	2.89899805e-05	3.06455444e-05	-2.62549884e-09	0.0037812	0.005658	0.0062928	1	0	1	-360	360;
	103040184	103040191	0.000140741312	6.1901206e-05	-2.62549884e-09	0.0012282	0.0018492	0.0020562	1	0	1	-360	360;
	103040219	103040226	0.000209983582	8.65607192e-05	-2.62549884e-09	0.001863	0.0028014	0.003105	1	0	1	-360	360;
	103040401	103040408	0.000174743097	7.68559585e-05	-2.62549884e-09	0.0012282	0.0018492	0.0020562	1	0	1	-360	360;
	103040555	103040562	2.62549884e-07	2.62549884e-07	-2.62549884e-09	6	8	10	1	0	1	-360	360;
	103040779	2811250	2.62549884e-07	2.62549884e-07	-2.62549884e-09	6	8	10	1	0	1	-360	360;
	103040786	103040793	0.000719045971	0.000503105709	-2.62549884e-09	0.0016008	0.0024012	0.0026772	1	0	1	-360	360;
	103040793	103040800	0.000407391412	0.000285045676	-2.62549884e-09	0.0016008	0.0024012	0.0026772	1	0	1	-360	360;
	103040849	103040856	0.000211855259	0.000148231956	-2.62549884e-09	0.0016008	0.0024012	0.0026772	1	0	1	-360	360;
	103040051	103041024	2.62549884e-07	2.62549884e-07	-2.62549884e-09	6	8	10	1	0	1	-360	360;
	104390729	104390736	3.08167735e-05	3.25766621e-05	-2.62549884e-09	0.0037812	0.005658	0.0062928	1	0	1	-360	360;
	104390750	104390757	0.000257157061	0.00010600686	-2.62549884e-09	0.001863	0.0028014	0.003105	1	0	1	-360	360;
	103040639	116194633	7.09325201e-05	4.76444002e-05	-2.62549884e-09	0.001656	0.002484	0.0027738	1	0	1	-360	360;
	103040870	129338260	8.98689422e-05	9.50011905e-05	-2.62549884e-09	0.0037812	0.005658	0.0062928	1	0	1	-360	360;
	129338302	129338309	0.000770511414	0.000539115309	-2.62549884e-09	0.0016008	0.0024012	0.0026772	1	0	1	-360	360;
	148372471	103039918	4.02115233e-05	4.25079286e-05	-2.62549884e-09	0.0037812	0.005658	0.0062928	1	0	1	-360	360;
	148711612	148711613	0.000149293	0.000100278059	-2.62549884e-09	0.001656	0.002484	0.0027738	1	0	1	-360	360;
	148711613	103040695	0.0001198582	4.94086818e-05	-2.62549884e-09	0.001863	0.0028014	0.003105	1	0	1	-360	360;
	103039813	149530697	2.62549884e-07	2.62549884e-07	-2.62549884e-09	6	8	10	1	0	1	-360	360;
	149799858	149799860	4.30967165e-05	4.55578899e-05	-2.62549884e-09	0.0037812	0.005658	0.0062928	1	0	1	-360	360;
	149973388	103856300	6.78064821e-05	2.79516037e-05	-2.62549884e-09	0.001863	0.0028014	0.003105	1	0	1	-360	360;
	149973390	149973391	0.00024455026	0.000100810007	-2.62549884e-09	0.001863	0.0028014	0.003105	1	0	1	-360	360;
	150196201	103039575	4.55982191e-05	4.82022486e-05	-2.62549884e-09	0.0037812	0.005658	0.0062928	1	0	1	-360	360;
	150196207	150196209	3.94306457e-05	4.16824565e-05	-2.62549884e-09	0.0037812	0.005658	0.0062928	1	0	1	-360	360;
	150196211	103039519	3.83939483e-05	4.05865553e-05	-2.62549884e-09	0.0037812	0.005658	0.0062928	1	0	1	-360	360;
	150342146	150342147	2.11457677e-05	4.23230414e-06	-2.62549884e-09	0.001173	0.0017664	0.0019734	1	0	1	-360	360;
	103040212	150342149	2.62549884e-07	2.62549884e-07	-2.62549884e-09	6	8	10	1	0	1	-360	360;
	150360221	103040135	0.00012381743	5.10407798e-05	-2.62549884e-09	0.001863	0.0028014	0.003105	1	0	1	-360	360;
	150360222	150360223	4.4022799e-05	4.65368592e-05	-2.62549884e-09	0.0037812	0.005658	0.0062928	1	0	1	-360	360;
	150393005	150393007	2.80469662e-05	2.96486763e-05	-2.62549884e-09	0.0037812	0.005658	0.0062928	1	0	1	-360	360;
	103040065	103040072	5.05154237e-05	5.34002656e-05	-2.62549884e-09	0.0037812	0.005658	0.0062928	1	0	1	-360	360;
	103040058	103040065	2.62549884e-07	2.62549884e-07	-2.62549884e-09	6	8	10	1	0	1	-360	360;
	103040443	103040450	2.62549884e-07	2.62549884e-07	-2.62549884e-09	6	8	10	1	0	1	-360	360;
	103040436	103040464	2.62549884e-07	2.62549884e-07	-2.62549884e-09	6	8	10	1	0	1	-360	360;
	103040429	103040478	2.62549884e-07	2.62549884e-07	-2.62549884e-09	6	8	10	1	0	1	-360	360;
	103040499	103040506	8.17736845e-05	8.64436276e-05	-2.62549884e-09	0.0037812	0.005658	0.0062928	1	0	1	-360	360;
	103040744	103040751	0.000421041977	0.000445086902	-2.62549884e-09	0.0037812	0.005658	0.0062928	1	0	1	-360	360;
	103040814	103040821	0.000270020713	0.000188929453	-2.62549884e-09	0.0016008	0.0024012	0.0026772	1	0	1	-360	360;
	103040821	103040828	0.000128276302	8.97530094e-05	-2.62549884e-09	0.0016008	0.0024012	0.0026772	1	0	1	-360	360;
	103040835	103040842	5.73257472e-05	2.36311709e-05	-2.62549884e-09	0.001863	0.0028014	0.003105	1	0	1	-360	360;
	103040975	103040982	0.000268119819	0.000110525995	-2.62549884e-09	0.001863	0.0028014	0.003105	1	0	1	-360	360;
	103039596	103041066	2.62549884e-07	2.62549884e-07	-2.62549884e-09	6	8	10	1	0	1	-360	360;
	103041080	103041087	9.89869615e-05	4.0805012e-05	-2.62549884e-09	0.001863	0.0028014	0.003105	1	0	1	-360	360;
	103041094	103041101	0.00145187489	0.0016239236	-2.62549884e-09	0.0006624	0.0013662	0.0015318	1	0	1	-360	360;
	116194598	3757804	0.000184027753	0.000194537235	-2.62549884e-09	0.0037812	0.005658	0.0062928	1	0	1	-360	360;
	116194647	116194654	0.00147386812	0.000449967413	-2.62549884e-09	0.000828	0.001242	0.0013938	1	0	1	-360	360;
	116198385	116198392	7.87654609e-05	1.39899724e-05	-2.62549884e-09	0.001449	0.0021666	0.002415	1	0	1	-360	360;
	129338267	129338274	0.000125231365	0.000132383095	-2.62549884e-09	0.0037812	0.005658	0.0062928	1	0	1	-360	360;
	129338295	129338302	0.000507548791	0.000355124296	-2.62549884e-09	0.0016008	0.0024012	0.0026772	1	0	1	-360	360;
	149273429	149273431	4.71922695e-05	4.98873322e-05	-2.62549884e-09	0.0037812	0.005658	0.0062928	1	0	1	-360	360;
	149973387	103039764	0.000136112265	5.61090321e-05	-2.62549884e-09	0.001863	0.0028014	0.003105	1	0	1	-360	360;
	149973389	103039799	0.000151470695	6.24401782e-05	-2.62549884e-09	0.001863	0.0028014	0.003105	1	0	1	-360	360;
	150196200	150196201	0.000168862344	0.000178505759	-2.62549884e-09	0.0037812	0.005658	0.0062928	1	0	1	-360	360;
	150196205	103039610	4.65467564e-05	4.92049551e-05	-2.62549884e-09	0.0037812	0.005658	0.0062928	1	0	1	-360	360;
	103040128	150360220	0.000105974027	4.36852631e-05	-2.62549884e-09	0.001863	0.0028014	0.003105	1	0	1	-360	360;
	103040086	150393003	2.62549884e-07	2.62549884e-07	-2.62549884e-09	6	8	10	1	0	1	-360	360;
	150393014	150393015	2.62549884e-07	2.62549884e-07	-2.62549884e-09	6	8	10	1	0	1	-360	360;
	103040387	150393019	2.78364322e-05	2.94261191e-05	-2.62549884e-09	0.0037812	0.005658	0.0062928	1	0	1	-360	360;
	150393019	2810886	2.62549884e-07	2.62549884e-07	-2.62549884e-09	6	8	10	1	0	1	-360	360;
	103040436	103040443	4.43082301e-05	4.68385907e-05	-2.62549884e-09	0.0037812	0.005658	0.0062928	1	0	1	-360	360;
	103040380	150406171	2.62549884e-07	2.62549884e-07	-2.62549884e-09	6	8	10	1	0	1	-360	360;
	103039778	103039848	2.62549884e-07	2.62549884e-07	-2.62549884e-09	6	8	10	1	0	1	-360	360;
	103040072	103040086	3.36333833e-05	3.55541233e-05	-2.62549884e-09	0.0037812	0.005658	0.0062928	1	0	1	-360	360;
	103040205	103040212	0.000116736211	4.81217164e-05	-2.62549884e-09	0.001863	0.0028014	0.003105	1	0	1	-360	360;
	103040247	103040254	0.000254412041	7.76712151e-05	-2.62549884e-09	0.000828	0.001242	0.0013938	1	0	1	-360	360;
	103040450	103040457	0.000165682996	5.05825101e-05	-2.62549884e-09	0.000828	0.001242	0.0013938	1	0	1	-360	360;
	103040464	103040471	8.57267672e-05	5.99817365e-05	-2.62549884e-09	0.0016008	0.0024012	0.0026772	1	0	1	-360	360;
	103040485	103040492	0.000150013567	6.59793531e-05	-2.62549884e-09	0.0012282	0.0018492	0.0020562	1	0	1	-360	360;
	103040534	103040541	2.62549884e-07	2.62549884e-07	-2.62549884e-09	6	8	10	1	0	1	-360	360;
	103040548	3784796	0.000127250269	0.000134517295	-2.62549884e-09	0.0037812	0.005658	0.0062928	1	0	1	-360	360;
	103040716	103040723	4.3928745e-05	1.93208536e-05	-2.62549884e-09	0.0012282	0.0018492	0.0020562	1	0	1	-360	360;
	103040758	103040765	0.000472416663	0.0004993955	-2.62549884e-09	0.0037812	0.005658	0.0062928	1	0	1	-360	360;
	103040800	103040807	9.30102257e-05	6.2473692e-05	-2.62549884e-09	0.001656	0.002484	0.0027738	1	0	1	-360	360;
	103040982	103040989	0.000286628697	0.000118155838	-2.62549884e-09	0.001863	0.0028014	0.003105	1	0	1	-360	360;
	103041024	103041031	5.77188204e-05	2.37932059e-05	-2.62549884e-09	0.001863	0.0028014	0.003105	1	0	1	-360	360;
	103041066	103041073	0.000125385946	5.51475693e-05	-2.62549884e-09	0.0012282	0.0018492	0.0020562	1	0	1	-360	360;
	104390736	104390743	0.000139618981	0.000147592362	-2.62549884e-09	0.0037812	0.005658	0.0062928	1	0	1	-360	360;
	104390750	104390764	5.21175122e-05	5.50938464e-05	-2.62549884e-09	0.0037812	0.005658	0.0062928	1	0	1	-360	360;
	104390771	104390778	9.74098418e-05	0.000102972737	-2.62549884e-09	0.0037812	0.005658	0.0062928	1	0	1	-360	360;
	104391030	104391037	2.62549884e-07	2.62549884e-07	-2.62549884e-09	6	8	10	1	0	1	-360	360;
	103040576	116194591	0.000122336979	0.000129323417	-2.62549884e-09	0.0037812	0.005658	0.0062928	1	0	1	-360	360;
	116194605	116194619	0.000257409132	0.000287912386	-2.62549884e-09	0.0006624	0.0013662	0.0015318	1	0	1	-360	360;
	116198357	116198364	0.000116736211	4.81217164e-05	-2.62549884e-09	0.001863	0.0028014	0.003105	1	0	1	-360	360;
	129338309	129338316	3.52201476e-05	3.72315047e-05	-2.62549884e-09	0.0037812	0.005658	0.0062928	1	0	1	-360	360;
	129338316	3013809	2.62549884e-07	2.62549884e-07	-2.62549884e-09	6	8	10	1	0	1	-360	360;
	148711614	2810893	0.000118352391	7.94956763e-05	-2.62549884e-09	0.001656	0.002484	0.0027738	1	0	1	-360	360;
	148823813	148823814	6.41472548e-05	2.82134106e-05	-2.62549884e-09	0.0012282	0.0018492	0.0020562	1	0	1	-360	360;
	149799857	149799858	9.88777715e-05	0.000104524497	-2.62549884e-09	0.0037812	0.005658	0.0062928	1	0	1	-360	360;
	149799859	149799864	4.6744948e-05	4.9414465e-05	-2.62549884e-09	0.0037812	0.005658	0.0062928	1	0	1	-360	360;
	149799862	149799863	5.50809734e-05	5.82265454e-05	-2.62549884e-09	0.0037812	0.005658	0.0062928	1	0	1	-360	360;
	103039778	149973392	0.000246264306	0.000101516582	-2.62549884e-09	0.001863	0.0028014	0.003105	1	0	1	-360	360;
	149973391	103039813	8.75951774e-05	3.61090209e-05	-2.62549884e-09	0.001863	0.0028014	0.003105	1	0	1	-360	360;
	149990051	149990052	0.000137270208	5.65863665e-05	-2.62549884e-09	0.001863	0.0028014	0.003105	1	0	1	-360	360;
	103856300	149990051	2.62549884e-07	2.62549884e-07	-2.62549884e-09	6	8	10	1	0	1	-360	360;
	150196204	103039596	9.28160549e-05	9.81166073e-05	-2.62549884e-09	0.0037812	0.005658	0.0062928	1	0	1	-360	360;
	150196206	150196207	0.00013235694	0.000139915598	-2.62549884e-09	0.0037812	0.005658	0.0062928	1	0	1	-360	360;
	150196212	103039533	9.15562089e-05	9.67848138e-05	-2.62549884e-09	0.0037812	0.005658	0.0062928	1	0	1	-360	360;
	150342147	150342148	4.52298071e-05	2.00027615e-05	-2.62549884e-09	0.0019872	0.002967	0.003312	1	0	1	-360	360;
	150342149	150342150	9.65191213e-05	2.13397519e-05	-2.62549884e-09	0.0009522	0.0014352	0.0016008	1	0	1	-360	360;
	150360215	150360216	0.000279899552	0.000115381909	-2.62549884e-09	0.001863	0.0028014	0.003105	1	0	1	-360	360;
	150393005	150393006	2.14604251e-05	2.26859901e-05	-2.62549884e-09	0.0037812	0.005658	0.0062928	1	0	1	-360	360;
	150393007	150393010	8.52747924e-05	9.01446772e-05	-2.62549884e-09	0.0037812	0.005658	0.0062928	1	0	1	-360	360;
	150393007	103040303	9.31765747e-05	1.65496106e-05	-2.62549884e-09	0.001449	0.0021666	0.002415	1	0	1	-360	360;
	150393016	150393017	9.68926664e-05	0.000102426026	-2.62549884e-09	0.0037812	0.005658	0.0062928	1	0	1	-360	360;
	103039876	103039883	0.000115116916	0.000128758392	-2.62549884e-09	0.0006624	0.0013662	0.0015318	1	0	1	-360	360;
	103039939	103039946	0.000184921498	8.1332649e-05	-2.62549884e-09	0.0012282	0.0018492	0.0020562	1	0	1	-360	360;
	103040072	103040079	8.0041603e-05	3.29952402e-05	-2.62549884e-09	0.001863	0.0028014	0.003105	1	0	1	-360	360;
	103040198	103040205	9.35050971e-05	3.85452442e-05	-2.62549884e-09	0.001863	0.0028014	0.003105	1	0	1	-360	360;
	103040135	103040198	2.62549884e-07	2.62549884e-07	-2.62549884e-09	6	8	10	1	0	1	-360	360;
	103040506	103040513	8.36720426e-05	8.84503974e-05	-2.62549884e-09	0.0037812	0.005658	0.0062928	1	0	1	-360	360;
	103040366	103040499	2.62549884e-07	2.62549884e-07	-2.62549884e-09	6	8	10	1	0	1	-360	360;
	103040856	103040940	2.62549884e-07	2.62549884e-07	-2.62549884e-09	6	8	10	1	0	1	-360	360;
	103041010	103041017	0.000111996666	4.92586618e-05	-2.62549884e-09	0.0012282	0.0018492	0.0020562	1	0	1	-360	360;
	103040975	103041010	2.62549884e-07	2.62549884e-07	-2.62549884e-09	6	8	10	1	0	1	-360	360;
	103039988	103041038	2.62549884e-07	2.62549884e-07	-2.62549884e-09	6	8	10	1	0	1	-360	360;
	103039659	103041052	2.62549884e-07	2.62549884e-07	-2.62549884e-09	6	8	10	1	0	1	-360	360;
	104390736	104390750	8.69687618e-05	9.19353861e-05	-2.62549884e-09	0.0037812	0.005658	0.0062928	1	0	1	-360	360;
	104390743	104390785	7.53893281e-05	7.96946725e-05	-2.62549884e-09	0.0037812	0.005658	0.0062928	1	0	1	-360	360;
	104391023	104391030	4.4268333e-05	1.82485636e-05	-2.62549884e-09	0.001863	0.0028014	0.003105	1	0	1	-360	360;
	116194591	116194598	6.25669414e-05	6.61400232e-05	-2.62549884e-09	0.0037812	0.005658	0.0062928	1	0	1	-360	360;
	116194612	116194626	0.0001067536	7.17049276e-05	-2.62549884e-09	0.001656	0.002484	0.0027738	1	0	1	-360	360;
	116198364	116198371	0.00025452424	0.000104921542	-2.62549884e-09	0.001863	0.0028014	0.003105	1	0	1	-360	360;
	116193800	116198357	2.62549884e-07	2.62549884e-07	-2.62549884e-09	6	8	10	1	0	1	-360	360;
	149273427	103039988	2.02929916e-05	2.14518866e-05	-2.62549884e-09	0.0037812	0.005658	0.0062928	1	0	1	-360	360;
	149530697	149530698	0.000118084323	4.86774435e-05	-2.62549884e-09	0.001863	0.0028014	0.003105	1	0	1	-360	360;
	149799858	149799859	5.20045117e-05	5.49743927e-05	-2.62549884e-09	0.0037812	0.005658	0.0062928	1	0	1	-360	360;
	149799863	103039750	2.62549884e-07	2.62549884e-07	-2.62549884e-09	6	8	10	1	0	1	-360	360;
	149973388	149973389	0.000104901773	4.32432519e-05	-2.62549884e-09	0.001863	0.0028014	0.003105	1	0	1	-360	360;
	103039533	150196199	2.62549884e-07	2.62549884e-07	-2.62549884e-09	6	8	10	1	0	1	-360	360;
	150196207	150196208	0.000851688272	0.000952614231	-2.62549884e-09	0.0006624	0.0013662	0.0015318	1	0	1	-360	360;
	150360216	150360218	0.000149694023	6.17077875e-05	-2.62549884e-09	0.001863	0.0028014	0.003105	1	0	1	-360	360;
	150393010	150393012	0.000117842645	0.000124572419	-2.62549884e-09	0.0037812	0.005658	0.0062928	1	0	1	-360	360;
];

%%-----  OPF Data  -----%%
%% generator cost data
%	1	startup	shutdown	n	x1	y1	...	xn	yn
%	2	startup	shutdown	n	c(n-1)	...	c0
mpc.gencost = [
	2	0	0	3	0.25	20	0;
];
